%chk=radicaldimertrans14qst3.chk
%nprocshared=16
%mem=63gb
#p opt=(QST3,loose,maxcycle=75,calcall,noeigentest,cartesian) freq cc-pvdz
geom=(NewDefinition) scrf=(cpcm,solvent=water)
gfinput int=grid=ultrafine m062x scf=damp MaxDisk=200GB

 radicaldimer  reactant
 
0 3
C         -0.56148        3.34678       -0.64552
C         -1.54519        3.32189       -1.63966
C         -0.91018        3.63943        0.67694
C         -2.24293        3.90737        1.00597
C         -3.22766        3.88268        0.01270
C         -2.87941        3.58963       -1.31117
O         -3.82539        3.56315       -2.26543
C         -0.55649       -0.19583       -0.00859
C         -1.29943       -0.25133       -1.19066
C         -2.67146        0.01986       -1.16895
C         -3.30432        0.34849        0.04065
C         -2.55484        0.40233        1.22241
C         -1.18298        0.13052        1.19698
H         -1.27132        3.09311       -2.66178
H          0.46960        3.13795       -0.89946
H         -0.14889        3.65712        1.44593
H         -2.51256        4.13245        2.02962
H         -4.25840        4.08897        0.27171
H         -0.80989       -0.50316       -2.12178
H         -3.23939       -0.02350       -2.08963
H         -3.03440        0.65665        2.15915
H         -0.60347        0.17378        2.10930
O         -4.62509        0.61605        0.07870
H         -5.17726        0.59394       -0.71585

dimerproduct  

0 1
C          4.04394       -0.33291        0.08747
C          2.88646       -1.10242        0.13845
C          3.96733        1.05170       -0.08667
C          2.71761        1.65454       -0.21068
C          1.54495        0.89652       -0.16260
C          1.63769       -0.48546        0.01339
O          0.55217       -1.32571        0.06609
C         -0.71237       -0.75780        0.04718
C         -1.41351       -0.68705       -1.15123
C         -2.70726       -0.16712       -1.16714
C         -3.29167        0.28670        0.01856
C         -2.57786        0.21377        1.22026
C         -1.28899       -0.30811        1.23385
H          2.92393       -2.18358        0.27461
H          5.01482       -0.82027        0.18630
H          4.87544        1.65325       -0.12508
H          2.64285        2.73411       -0.34835
H          0.57276        1.37807       -0.26165
H         -0.94429       -1.04465       -2.06816
H         -3.26428       -0.11399       -2.10469
H         -3.05126        0.56843        2.13589
H         -0.72250       -0.37328        2.16360
O         -4.54656        0.80444        0.06918
H         -4.93021        0.79785       -0.81962

transition state

0 1
 C     3.935814     0.770755     0.793682
 C     2.662298     1.296400     0.738520
 C     4.583581     0.350458    -0.368444
 C     3.952097     0.444328    -1.595196
 C     2.670204     0.957920    -1.666000
 C     2.020672     1.373459    -0.506404
 O     0.749136     1.898672    -0.759797
 C    -0.573127     1.066291    -0.195612
 C    -0.487152    -0.274126    -0.048295
 C    -1.553490    -1.115282     0.208463
 C    -2.823116    -0.525532     0.277638
 C    -2.943513     0.880883     0.111912
 C    -1.816311     1.685710    -0.114301
 H     2.196185     1.615347     1.653756
 H     4.436020     0.724671     1.739023
 H     5.599744    -0.040226    -0.313417
 H     4.460238     0.122199    -2.504290
 H     2.147597     1.039387    -2.619483
 H     0.495019    -0.737727    -0.135357
 H    -1.410394    -2.185545     0.366793
 H    -3.935365     1.328282     0.176705
 H    -1.890840     2.768126    -0.218910
 O    -3.963348    -1.236400     0.502866
 H    -3.745030    -2.174700     0.595486

END
